*Heading
**	Copyright (c) 2015 James A. Grogan
**
**       Permission is hereby granted, free of charge, to any person obtaining a copy
**       of this software and associated documentation files (the "Software"), to deal
**       in the Software without restriction, including without limitation the rights
**      to use, copy, modify, merge, publish, distribute, sublicense, and/or sell
**       copies of the Software, and to permit persons to whom the Software is
**       furnished to do so, subject to the following conditions:
**
**       The above copyright notice and this permission notice shall be included in
**       call copies or substantial portions of the Software.
**
**       THE SOFTWARE IS PROVIDED "AS IS", WITHOUT WARRANTY OF ANY KIND, EXPRESS OR
**       IMPLIED, INCLUDING BUT NOT LIMITED TO THE WARRANTIES OF MERCHANTABILITY,
**       FITNESS FOR A PARTICULAR PURPOSE AND NONINFRINGEMENT. IN NO EVENT SHALL THE
**       AUTHORS OR COPYRIGHT HOLDERS BE LIABLE FOR ANY CLAIM, DAMAGES OR OTHER
**      LIABILITY, WHETHER IN AN ACTION OF CONTRACT, TORT OR OTHERWISE, ARISING FROM,
**       OUT OF OR IN CONNECTION WITH THE SOFTWARE OR THE USE OR OTHER DEALINGS IN
**       THE SOFTWARE.
**
**       Author: J. Grogan
**       Initial Version: 2012
**	-------------------------------------------------------------------
** Job name: TRIAL2 Model name: Trial2
** Generated by: Abaqus/CAE 6.10-1
*Preprint, echo=NO, model=NO, history=NO, contact=NO
**
** PARTS
**
*Part, name=Mesh8
*Node
      1,   1.35000002,          1.5,           0.
      2,   1.35000002,   1.29903722,   0.75000155
      3,         1.13,   1.29903722,   0.75000155
      4,  0.947164774,   1.42066574,  0.481361508
      5,  0.233106926,   1.49399555,  0.134079203
      6,  0.150000006,          1.5,           0.
      7,         1.13,   1.27305651,  0.735001564
      8,  0.947164774,   1.39225245,  0.471734285
      9,  0.233106926,   1.46411562,   0.13139762
     10,  0.150000006,   1.47000003,           0.
     11,   1.35000002,   1.47000003,           0.
     12,   1.35000002,   1.27305651,  0.735001564
     13,  0.947164774,   1.27859914,  0.433225363
     14,  0.233106926,   1.34459603,   0.12067128
     15,  0.150000006,   1.35000002,           0.
     16,   1.35000002,   1.35000002,           0.
     17,   1.35000002,   1.16913342,  0.675001383
     18,         1.13,   1.16913342,  0.675001383
     19,         1.13,   1.14315271,  0.660001397
     20,  0.947164774,   1.25018585,   0.42359814
** ... 34476 like lines cut
*Element, type=C3D8RT
    1,    90,    91,  1351,  1343,  1673,  1672,  9607,  9599
    2,    91,    92,  1350,  1351,  1672,  1671,  9606,  9607
    3,    92,    93,  1349,  1350,  1671,  1670,  9605,  9606
    4,    93,    94,  1348,  1349,  1670,  1669,  9604,  9605
    5,    94,    95,  1347,  1348,  1669,  1668,  9603,  9604
    6,    95,    96,  1346,  1347,  1668,  1667,  9602,  9603
    7,    96,    97,  1345,  1346,  1667,  1666,  9601,  9602
    8,    97,    98,  1344,  1345,  1666,  1665,  9600,  9601
    9,    98,    99,  1337,  1344,  1665,  1664,  9593,  9600
   10,  1337,  1338,  1367,  1344,  9593,  9594,  9623,  9600
   11,  1338,  1339,  1368,  1367,  9594,  9595,  9624,  9623
   12,  1339,  1340,  1369,  1368,  9595,  9596,  9625,  9624
   13,  1340,  1341,  1370,  1369,  9596,  9597,  9626,  9625
   14,  1341,  1342,  1371,  1370,  9597,  9598,  9627,  9626
   15,  1342,   116,   117,  1371,  9598,  1700,  1701,  9627
   16,  1344,  1367,  1372,  1345,  9600,  9623,  9628,  9601
   17,  1367,  1368,  1373,  1372,  9623,  9624,  9629,  9628
   18,  1368,  1369,  1374,  1373,  9624,  9625,  9630,  9629
   19,  1369,  1370,  1375,  1374,  9625,  9626,  9631,  9630
   20,  1370,  1371,  1376,  1375,  9626,  9627,  9632,  9631
** ... 31413 like lines cut
*Elset, elset=Set-1, generate
 18039,  19010,      1
*Elset, elset=InterfaceE
 18039, 18040, 18041, 18042, 18043, 18044, 18045, 18046, 18047, 18048, 18049, 18050, 18051, 18052, 18053, 18054
 18055, 18056, 18057, 18058, 18059, 18060, 18061, 18062, 18063, 18064, 18065, 18066, 18067, 18068, 18069, 18070
 18071, 18072, 18073, 18074, 18075, 18076, 18077, 18078, 18079, 18080, 18081, 18082, 18083, 18084, 18085, 18086
 18087, 18088, 18089, 18090, 18091, 18092, 18093, 18094, 18095, 18096, 18097, 18098, 18099, 18100, 18101, 18102
 18103, 18104, 18105, 18106, 18107, 18108, 18109, 18110, 18111, 18112, 18113, 18114, 18115, 18116, 18117, 18118
 18119, 18120, 18121, 18122, 18123, 18124, 18125, 18126, 18127, 18128, 18129, 18130, 18131, 18132, 18133, 18134
 18135, 18136, 18137, 18138, 18139, 18140, 18141, 18142, 18143, 18144, 18145, 18146, 18147, 18148, 18149, 18150
 18151, 18152, 18153, 18154, 18155, 18156, 18157, 18158, 18159, 18160, 18161, 18162, 18163, 18164, 18165, 18166
 18167, 18168, 18169, 18170, 18171, 18172, 18173, 18174, 18175, 18176, 18177, 18178, 18179, 18180, 18181, 18182
 18183, 18184, 18185, 18186, 18187, 18188, 18189, 18190, 18191, 18192, 18193, 18194, 18195, 18196, 18197, 18198
 18199, 18200, 18201, 18206, 18207, 18212, 18213, 18218, 18219, 18224, 18225, 18230, 18231, 18236, 18237, 18242
 18243, 18248, 18249, 18254, 18255, 18260, 18261, 18266, 18267, 18272, 18273, 18278, 18279, 18284, 18285, 18290
 18291, 18296, 18297, 18302, 18303, 18308, 18309, 18314, 18315, 18320, 18321, 18326, 18327, 18332, 18333, 18338
 18339, 18344, 18345, 18350, 18351, 18356, 18357, 18362, 18363, 18368, 18369, 18374, 18375, 18380, 18381, 18386
 18387, 18392, 18393, 18398, 18399, 18404, 18405, 18410, 18411, 18416, 18417, 18422, 18423, 18428, 18429, 18434
 18435, 18440, 18441, 18446, 18447, 18452, 18453, 18458, 18459, 18464, 18465, 18470, 18471, 18476, 18477, 18482
 18483, 18488, 18489, 18494, 18495, 18500, 18501, 18506, 18507, 18512, 18513, 18518, 18519, 18524, 18525, 18530
 18531, 18536, 18537, 18542, 18543, 18548, 18549, 18554, 18555, 18560, 18561, 18566, 18567, 18572, 18573, 18578
 18579, 18584, 18585, 18590, 18591, 18596, 18597, 18602, 18603, 18608, 18609, 18614, 18615, 18620, 18621, 18626
 18627, 18632, 18633, 18638, 18639, 18644, 18645, 18650, 18651, 18656, 18657, 18662, 18663, 18668, 18669, 18674
** ... 14 like lines cut
*Nset, nset=InterfaceN
   61,   62,   63,   64,   65,   66,   67,   68,   73,   74,   75,   76,   77,   78,   79,   80
  921,  922,  923,  924,  925,  926,  927,  928,  929,  930,  931,  932,  933,  934,  935,  936
  937,  938,  939,  940,  941,  942,  943,  944,  947,  948,  949,  950,  951,  952,  953,  954
  955,  956,  957,  958,  959,  960,  961,  962,  963,  964,  965,  966,  969,  970,  971,  972
  973,  974,  975,  976,  977,  978,  979,  980,  981,  982,  983,  984,  985,  986,  987,  988
  989,  990,  991,  992, 1039, 1040, 1041, 1042, 1043, 1044, 1045, 1046, 1047, 1048, 1049, 1050
 1051, 1052, 1053, 1054, 1055, 1056, 1057, 1058, 1059, 1060, 1061, 1062, 1063, 1064, 1065, 1066
 1067, 1068, 1069, 1070, 1071, 1072, 1073, 1074, 1075, 1076, 1077, 1078, 1079, 1080, 1081, 1082
 1083, 1084, 1085, 1086, 1087, 1088, 1089, 1090, 1091, 1092, 1093, 1094, 1095, 1096, 1097, 1098
 1099, 1100, 1101, 1102, 1103, 1104, 1105, 1106, 1107, 1108, 1109, 1110, 1111, 1112, 1113, 1114
 1115, 1116, 1117, 1118, 1119, 1120, 1121, 1122, 1123, 1124, 1125, 1126, 6387, 6388, 6389, 6390
 6391, 6392, 6393, 6394, 6395, 6396, 6397, 6398, 6399, 6400, 6401, 6402, 6403, 6404, 6405, 6406
 6407, 6408, 6409, 6410, 6411, 6412, 6413, 6414, 6415, 6416, 6417, 6418, 6419, 6420, 6421, 6422
 6423, 6424, 6425, 6426, 6427, 6428, 6429, 6430, 6431, 6432, 6433, 6434, 6435, 6436, 6437, 6438
 6439, 6440, 6441, 6442, 6443, 6444, 6445, 6446, 6447, 6448, 6449, 6450, 6451, 6452, 6453, 6454
 6455, 6456, 6457, 6458, 6459, 6460, 6461, 6462, 6463, 6464, 6465, 6466, 6467, 6468, 6469, 6470
 6471, 6472, 6473, 6474, 6475, 6476, 6477, 6478, 6479, 6480, 6481, 6482, 6483, 6484, 6485, 6486
 6487, 6488, 6489, 6490, 6491, 6492, 6493, 6494, 6495, 6496, 6497, 6498, 6499, 6500, 6501, 6502
 6503, 6504, 6505, 6506, 6625, 6626, 6627, 6628, 6629, 6630, 6631, 6632, 6633, 6634, 6635, 6636
 6637, 6638, 6639, 6640, 6641, 6642, 6643, 6644, 6645, 6646, 6647, 6648, 6649, 6650, 6651, 6652
** ... 22 like lines cut
*Elset, elset=_PickedSet5, internal, generate
 18039,  19010,      1
*Elset, elset=_PickedSet6, internal
     1,     2,     3,     4,     5,     6,     7,     8,     9,    10,    11,    12,    13,    14,    15,    16
    17,    18,    19,    20,    21,    22,    23,    24,    25,    26,    27,    28,    29,    30,    31,    32
    33,    34,    35,    36,    37,    38,    39,    40,    41,    42,    43,    44,    45,    46,    47,    48
    49,    50,    51,    52,    53,    54,    55,    56,    57,    58,    59,    60,    61,    62,    63,    64
    65,    66,    67,    68,    69,    70,    71,    72,    73,    74,    75,    76,    77,    78,    79,    80
    81,    82,    83,    84,    85,    86,    87,    88,    89,    90,    91,    92,    93,    94,    95,    96
    97,    98,    99,   100,   101,   102,   103,   104,   105,   106,   107,   108,   109,   110,   111,   112
   113,   114,   115,   116,   117,   118,   119,   120,   121,   122,   123,   124,   125,   126,   127,   128
   129,   130,   131,   132,   133,   134,   135,   136,   137,   138,   139,   140,   141,   142,   143,   144
   145,   146,   147,   148,   149,   150,   151,   152,   153,   154,   155,   156,   157,   158,   159,   160
   161,   162,   163,   164,   165,   166,   167,   168,   169,   170,   171,   172,   173,   174,   175,   176
   177,   178,   179,   180,   181,   182,   183,   184,   185,   186,   187,   188,   189,   190,   191,   192
   193,   194,   195,   196,   197,   198,   199,   200,   201,   202,   203,   204,   205,   206,   207,   208
   209,   210,   211,   212,   213,   214,   215,   216,   217,   218,   219,   220,   221,   222,   223,   224
   225,   226,   227,   228,   229,   230,   231,   232,   233,   234,   235,   236,   237,   238,   239,   240
   241,   242,   243,   244,   245,   246,   247,   248,   249,   250,   251,   252,   253,   254,   255,   256
   257,   258,   259,   260,   261,   262,   263,   264,   265,   266,   267,   268,   269,   270,   271,   272
   273,   274,   275,   276,   277,   278,   279,   280,   281,   282,   283,   284,   285,   286,   287,   288
   289,   290,   291,   292,   293,   294,   295,   296,   297,   298,   299,   300,   301,   302,   303,   304
   305,   306,   307,   308,   309,   310,   311,   312,   313,   314,   315,   316,   317,   318,   319,   320
** ... 1884 like lines cut
** Section: Section-1
*Solid Section, elset=_PickedSet6, controls=EC-1, material=Material-1
,
** Section: Section-2
*Solid Section, elset=_PickedSet5, controls=EC-1, material=Material-2
,
*End Part
**  
**
** ASSEMBLY
**
*Assembly, name=Assembly
**  
*Instance, name=Mesh8-1, part=Mesh8
*End Instance
**  
*Nset, nset=All, instance=Mesh8-1, generate
     1,  34496,      1
*Nset, nset=_PickedSet57, internal, instance=Mesh8-1
    61,    62,    63,    64,    65,    66,    67,    68,    73,    74,    75,    76,    77,    78,    79,    80
   921,   922,   923,   924,   925,   926,   927,   928,   929,   930,   931,   932,   933,   934,   935,   936
   937,   938,   939,   940,   941,   942,   943,   944,   947,   948,   949,   950,   951,   952,   953,   954
   955,   956,   957,   958,   959,   960,   961,   962,   963,   964,   965,   966,   969,   970,   971,   972
   973,   974,   975,   976,   977,   978,   979,   980,   981,   982,   983,   984,   985,   986,   987,   988
   989,   990,   991,   992,  1039,  1040,  1041,  1042,  1043,  1044,  1045,  1046,  1047,  1048,  1049,  1050
  1051,  1052,  1053,  1054,  1055,  1056,  1057,  1058,  1059,  1060,  1061,  1062,  1063,  1064,  1065,  1066
  1067,  1068,  1069,  1070,  1071,  1072,  1073,  1074,  1075,  1076,  1077,  1078,  1079,  1080,  1081,  1082
  1083,  1084,  1085,  1086,  1087,  1088,  1089,  1090,  1091,  1092,  1093,  1094,  1095,  1096,  1097,  1098
  1099,  1100,  1101,  1102,  1103,  1104,  1105,  1106,  1107,  1108,  1109,  1110,  1111,  1112,  1113,  1114
  1115,  1116,  1117,  1118,  1119,  1120,  1121,  1122,  1123,  1124,  1125,  1126,  6387,  6388,  6389,  6390
  6391,  6392,  6393,  6394,  6395,  6396,  6397,  6398,  6399,  6400,  6401,  6402,  6403,  6404,  6405,  6406
  6407,  6408,  6409,  6410,  6411,  6412,  6413,  6414,  6415,  6416,  6417,  6418,  6419,  6420,  6421,  6422
  6423,  6424,  6425,  6426,  6427,  6428,  6429,  6430,  6431,  6432,  6433,  6434,  6435,  6436,  6437,  6438
  6439,  6440,  6441,  6442,  6443,  6444,  6445,  6446,  6447,  6448,  6449,  6450,  6451,  6452,  6453,  6454
  6455,  6456,  6457,  6458,  6459,  6460,  6461,  6462,  6463,  6464,  6465,  6466,  6467,  6468,  6469,  6470
  6471,  6472,  6473,  6474,  6475,  6476,  6477,  6478,  6479,  6480,  6481,  6482,  6483,  6484,  6485,  6486
  6487,  6488,  6489,  6490,  6491,  6492,  6493,  6494,  6495,  6496,  6497,  6498,  6499,  6500,  6501,  6502
  6503,  6504,  6505,  6506,  6625,  6626,  6627,  6628,  6629,  6630,  6631,  6632,  6633,  6634,  6635,  6636
  6637,  6638,  6639,  6640,  6641,  6642,  6643,  6644,  6645,  6646,  6647,  6648,  6649,  6650,  6651,  6652
** ... 66 like lines cut
*Nset, nset=_PickedSet58, internal, instance=Mesh8-1
    61,    62,    63,    64,    65,    66,    67,    68,    73,    74,    75,    76,    77,    78,    79,    80
   921,   922,   923,   924,   925,   926,   927,   928,   929,   930,   931,   932,   933,   934,   935,   936
   937,   938,   939,   940,   941,   942,   943,   944,   947,   948,   949,   950,   951,   952,   953,   954
   955,   956,   957,   958,   959,   960,   961,   962,   963,   964,   965,   966,   969,   970,   971,   972
   973,   974,   975,   976,   977,   978,   979,   980,   981,   982,   983,   984,   985,   986,   987,   988
   989,   990,   991,   992,  1039,  1040,  1041,  1042,  1043,  1044,  1045,  1046,  1047,  1048,  1049,  1050
  1051,  1052,  1053,  1054,  1055,  1056,  1057,  1058,  1059,  1060,  1061,  1062,  1063,  1064,  1065,  1066
  1067,  1068,  1069,  1070,  1071,  1072,  1073,  1074,  1075,  1076,  1077,  1078,  1079,  1080,  1081,  1082
  1083,  1084,  1085,  1086,  1087,  1088,  1089,  1090,  1091,  1092,  1093,  1094,  1095,  1096,  1097,  1098
  1099,  1100,  1101,  1102,  1103,  1104,  1105,  1106,  1107,  1108,  1109,  1110,  1111,  1112,  1113,  1114
  1115,  1116,  1117,  1118,  1119,  1120,  1121,  1122,  1123,  1124,  1125,  1126,  6387,  6388,  6389,  6390
  6391,  6392,  6393,  6394,  6395,  6396,  6397,  6398,  6399,  6400,  6401,  6402,  6403,  6404,  6405,  6406
  6407,  6408,  6409,  6410,  6411,  6412,  6413,  6414,  6415,  6416,  6417,  6418,  6419,  6420,  6421,  6422
  6423,  6424,  6425,  6426,  6427,  6428,  6429,  6430,  6431,  6432,  6433,  6434,  6435,  6436,  6437,  6438
  6439,  6440,  6441,  6442,  6443,  6444,  6445,  6446,  6447,  6448,  6449,  6450,  6451,  6452,  6453,  6454
  6455,  6456,  6457,  6458,  6459,  6460,  6461,  6462,  6463,  6464,  6465,  6466,  6467,  6468,  6469,  6470
  6471,  6472,  6473,  6474,  6475,  6476,  6477,  6478,  6479,  6480,  6481,  6482,  6483,  6484,  6485,  6486
  6487,  6488,  6489,  6490,  6491,  6492,  6493,  6494,  6495,  6496,  6497,  6498,  6499,  6500,  6501,  6502
  6503,  6504,  6505,  6506,  6625,  6626,  6627,  6628,  6629,  6630,  6631,  6632,  6633,  6634,  6635,  6636
  6637,  6638,  6639,  6640,  6641,  6642,  6643,  6644,  6645,  6646,  6647,  6648,  6649,  6650,  6651,  6652
** ... 66 like lines cut
*Elset, elset=_PickedSet59, internal, instance=Mesh8-1, generate
     1,  31433,      1
*End Assembly
** 
** ELEMENT CONTROLS
** 
*Section Controls, name=EC-1, hourglass=ENHANCED
1., 1., 1.
** 
** MATERIALS
** 
*Material, name=Material-1
*Conductivity
 0.10575,
*Density
1.,
*Elastic
 0.001, 0.3
*Specific Heat
1.,
*Material, name=Material-2
*Conductivity
 0.10575,
*Density
1.,
*Elastic
44000., 0.3
*Specific Heat
1.,
** 
** PREDEFINED FIELDS
** 
** Name: Predefined Field-1   Type: Temperature
*Initial Conditions, type=TEMPERATURE
_PickedSet58, 134.
** ----------------------------------------------------------------
** 
** STEP: Step-1
** 
*Step, name=Step-1, nlgeom=YES, inc=10000
*Coupled Temperature-displacement, creep=none, deltmx=100.
0.000125, 0.3, 1e-06, 0.000125
** 
** BOUNDARY CONDITIONS
** 
** Name: BC-1 Type: Temperature
*Boundary
_PickedSet57, 11, 11, 134.
*Adaptive Mesh, elset=_PickedSet59, frequency=1, mesh sweeps=5, op=NEW
** 
*field,user
All
** ADAPTIVE MESH CONSTRAINTS
** 
** Name: Ada-Cons-1 Type: Velocity/Angular velocity
*Adaptive Mesh Constraint, user, type=VELOCITY
Mesh8-1.InterfaceN
** 
** OUTPUT REQUESTS
** 
*Restart, write, frequency=0
** 
** FIELD OUTPUT: F-Output-1
** 
*Output, field
*Node Output
CF, COORD, NT, RF, RFL, U
*Element Output, directions=YES
EVOL, HFL, LE, PE, PEEQ, PEMAG, S
*Contact Output
CDISP, CSTRESS
** 
** HISTORY OUTPUT: H-Output-1
** 
*Output, history, variable=PRESELECT
*End Step
