*Heading
**	Copyright (c) 2015 James A. Grogan
**
**       Permission is hereby granted, free of charge, to any person obtaining a copy
**       of this software and associated documentation files (the "Software"), to deal
**       in the Software without restriction, including without limitation the rights
**      to use, copy, modify, merge, publish, distribute, sublicense, and/or sell
**       copies of the Software, and to permit persons to whom the Software is
**       furnished to do so, subject to the following conditions:
**
**       The above copyright notice and this permission notice shall be included in
**       call copies or substantial portions of the Software.
**
**       THE SOFTWARE IS PROVIDED "AS IS", WITHOUT WARRANTY OF ANY KIND, EXPRESS OR
**       IMPLIED, INCLUDING BUT NOT LIMITED TO THE WARRANTIES OF MERCHANTABILITY,
**       FITNESS FOR A PARTICULAR PURPOSE AND NONINFRINGEMENT. IN NO EVENT SHALL THE
**       AUTHORS OR COPYRIGHT HOLDERS BE LIABLE FOR ANY CLAIM, DAMAGES OR OTHER
**      LIABILITY, WHETHER IN AN ACTION OF CONTRACT, TORT OR OTHERWISE, ARISING FROM,
**       OUT OF OR IN CONNECTION WITH THE SOFTWARE OR THE USE OR OTHER DEALINGS IN
**       THE SOFTWARE.
**
**       Author: J. Grogan
**       Initial Version: 2012
**	-------------------------------------------------------------------
** Job name: S6 Model name: Square6
** Generated by: Abaqus/CAE 6.10-1
*Preprint, echo=NO, model=NO, history=NO, contact=NO
**
** PARTS
**
*Part, name=Geom
*Node
      1,  0.606349528, -0.589048624,  0.119999997
      2,  0.606349528, -0.589048624, 0.0599999987
      3,  0.606349528, -0.589048624,           0.
      4,  0.349999994,  -0.33269909,           0.
      5,  0.349999994,  -0.33269909,  0.119999997
      6,  0.486349553, -0.589048624, 0.0599999987
      7,  0.486349553, -0.589048624,           0.
      8,  0.349999994, -0.452699095,           0.
      9,  0.349999994, -0.452699095,  0.119999997
     10,  0.486349553, -0.589048624,  0.119999997
     11,  0.546349525, -0.589048624,  0.119999997
     12,  0.349999994, -0.392699093,           0.
     13,  0.546349525, -0.589048624,           0.
     14,  0.546349525, -0.589048624, 0.0599999987
     15, -0.349999994,  -0.33269909,           0.
     16, -0.349999994,  -0.33269909,  0.119999997
     17, -0.349999994, -0.452699095,           0.
     18, -0.349999994, -0.452699095,  0.119999997
     19, -0.349999994, -0.392699093,           0.
     20, -0.486349553, -0.196349546,           0.
** ... 3214 like lines cut
*Element, type=C3D8R
  1,  109,  643, 1685,  503,    1,   29,  363,   65
  2,  643,  644, 1686, 1685,   29,   30,  364,  363
  3,  644,  121, 1687, 1686,   30,    2,  365,  364
  4,  121,  647, 1688, 1687,    2,   31,  366,  365
  5,  647,  649, 1689, 1688,   31,   32,  367,  366
  6,  649,  116,  573, 1689,   32,    3,   33,  367
  7,  503, 1685, 1690,  504,   65,  363,  368,   64
  8, 1685, 1686, 1691, 1690,  363,  364,  369,  368
  9, 1686, 1687, 1692, 1691,  364,  365,  370,  369
 10, 1687, 1688, 1693, 1692,  365,  366,  371,  370
 11, 1688, 1689, 1694, 1693,  366,  367,  372,  371
 12, 1689,  573,  574, 1694,  367,   33,   34,  372
 13,  504, 1690, 1695,  505,   64,  368,  373,   63
 14, 1690, 1691, 1696, 1695,  368,  369,  374,  373
 15, 1691, 1692, 1697, 1696,  369,  370,  375,  374
 16, 1692, 1693, 1698, 1697,  370,  371,  376,  375
 17, 1693, 1694, 1699, 1698,  371,  372,  377,  376
 18, 1694,  574,  575, 1699,  372,   34,   35,  377
 19,  505, 1695, 1700,  506,   63,  373,  378,   62
 20, 1695, 1696, 1701, 1700,  373,  374,  379,  378
** ... 2320 like lines cut
*Nset, nset=BC3
 14,
*Nset, nset=BCB
   1,   2,   3,   6,   7,  10,  11,  13,  14,  29,  30,  31,  32,  66,  67,  68
  69, 108, 109, 110, 111, 116, 117, 118, 119, 120, 121, 122, 123, 124, 125, 126
 127, 643, 644, 645, 646, 647, 648, 649, 650, 651, 652, 653, 654, 655, 656, 657
 658,
*Elset, elset=BCB
   1,   2,   3,   4,   5,   6,  91,  92,  93,  94,  95,  96, 181, 182, 183, 184
 185, 186, 271, 272, 273, 274, 275, 276, 361, 362, 363, 364, 365, 366, 451, 452
 453, 454, 455, 456
*Nset, nset=BCT
   20,   21,   22,   23,   24,   25,   26,   27,   28,  283,  284,  285,  286,  287,  288,  289
  290,  291,  292,  293,  294,  295,  296,  297,  298,  299,  300,  301,  302,  303,  304,  305
  306, 1389, 1390, 1391, 1392, 1393, 1394, 1395, 1396, 1397, 1398, 1399, 1400, 1401, 1402, 1403
 1404,
*Elset, elset=BCT, generate
 1801,  1836,     1
*Nset, nset=Const
    1,    2,    3,    4,    5,    6,    7,    8,    9,   10,   11,   12,   13,   14,   15,   16
   17,   18,   19,   20,   21,   22,   23,   24,   25,   26,   27,   28,   29,   30,   31,   32
   33,   34,   35,   36,   37,   38,   39,   40,   41,   42,   43,   44,   45,   46,   47,   48
   49,   50,   51,   52,   53,   54,   55,   56,   57,   58,   59,   60,   61,   62,   63,   64
   65,   66,   67,   68,   69,   70,   71,   72,   73,   74,   75,   76,   77,   78,   79,   80
   81,   82,   83,   84,   85,   86,   87,   88,   89,   90,   91,   92,   93,   94,   95,   96
   97,   98,   99,  100,  101,  102,  103,  104,  105,  106,  107,  108,  109,  110,  111,  112
  113,  114,  115,  116,  117,  118,  119,  120,  121,  122,  123,  124,  125,  126,  127,  128
  129,  130,  131,  132,  133,  134,  135,  136,  137,  138,  139,  140,  141,  142,  143,  144
  145,  146,  147,  148,  149,  150,  151,  152,  153,  154,  155,  156,  157,  158,  159,  160
  161,  162,  163,  164,  165,  166,  167,  168,  169,  170,  171,  172,  173,  174,  175,  176
  177,  178,  179,  180,  181,  182,  183,  184,  185,  186,  187,  188,  189,  190,  191,  192
  193,  194,  195,  196,  197,  198,  199,  200,  201,  202,  203,  204,  205,  206,  207,  208
  209,  210,  211,  212,  213,  214,  215,  216,  217,  218,  219,  220,  221,  222,  223,  224
  225,  226,  227,  228,  229,  230,  231,  232,  233,  234,  235,  236,  237,  238,  239,  240
  241,  242,  243,  244,  245,  246,  247,  248,  249,  250,  251,  252,  253,  254,  255,  256
  257,  258,  259,  260,  261,  262,  263,  264,  265,  266,  267,  268,  269,  270,  271,  272
  273,  274,  275,  276,  277,  278,  279,  280,  281,  282,  283,  284,  285,  286,  287,  288
  289,  290,  291,  292,  293,  294,  295,  296,  297,  298,  299,  300,  301,  302,  303,  304
  305,  306,  307,  308,  309,  310,  311,  312,  313,  314,  315,  316,  317,  318,  319,  320
** ... 83 like lines cut
*Elset, elset=Const
    1,    2,    3,    4,    5,    6,    7,    8,    9,   10,   11,   12,   13,   14,   15,   16
   17,   18,   19,   20,   21,   22,   23,   24,   25,   26,   27,   28,   29,   30,   31,   32
   33,   34,   35,   36,   37,   38,   39,   40,   41,   42,   43,   44,   45,   46,   47,   48
   49,   50,   51,   52,   53,   54,   55,   56,   57,   58,   59,   60,   61,   62,   63,   64
   65,   66,   67,   68,   69,   70,   71,   72,   73,   74,   75,   76,   77,   78,   79,   80
   81,   82,   83,   84,   85,   86,   87,   88,   89,   90,   91,   92,   93,   94,   95,   96
   97,  102,  103,  108,  109,  114,  115,  120,  121,  126,  127,  132,  133,  138,  139,  144
  145,  150,  151,  156,  157,  162,  163,  168,  169,  174,  175,  180,  181,  182,  183,  184
  185,  186,  187,  192,  193,  198,  199,  204,  205,  210,  211,  216,  217,  222,  223,  228
  229,  234,  235,  240,  241,  246,  247,  252,  253,  258,  259,  264,  265,  270,  271,  272
  273,  274,  275,  276,  277,  282,  283,  288,  289,  294,  295,  300,  301,  306,  307,  312
  313,  318,  319,  324,  325,  330,  331,  336,  337,  342,  343,  348,  349,  354,  355,  360
  361,  362,  363,  364,  365,  366,  367,  372,  373,  378,  379,  384,  385,  390,  391,  396
  397,  402,  403,  408,  409,  414,  415,  420,  421,  426,  427,  432,  433,  438,  439,  444
  445,  450,  451,  452,  453,  454,  455,  456,  457,  458,  459,  460,  461,  462,  463,  464
  465,  466,  467,  468,  469,  470,  471,  472,  473,  474,  475,  476,  477,  478,  479,  480
  481,  482,  483,  484,  485,  486,  487,  488,  489,  490,  491,  492,  493,  494,  495,  496
  497,  498,  499,  500,  501,  502,  503,  504,  505,  506,  507,  508,  509,  510,  511,  512
  513,  514,  515,  516,  517,  518,  519,  520,  521,  522,  523,  524,  525,  526,  527,  528
  529,  530,  531,  532,  533,  534,  535,  536,  537,  538,  539,  540,  541,  542,  543,  544
** ... 64 like lines cut
*Nset, nset=Fixed
    1,    2,    3,    6,    7,   10,   11,   13,   14,   20,   21,   22,   23,   24,   25,   26
   27,   28,   29,   30,   31,   32,   66,   67,   68,   69,  108,  109,  110,  111,  116,  117
  118,  119,  120,  121,  122,  123,  124,  125,  126,  127,  283,  284,  285,  286,  287,  288
  289,  290,  291,  292,  293,  294,  295,  296,  297,  298,  299,  300,  301,  302,  303,  304
  305,  306,  643,  644,  645,  646,  647,  648,  649,  650,  651,  652,  653,  654,  655,  656
  657,  658, 1389, 1390, 1391, 1392, 1393, 1394, 1395, 1396, 1397, 1398, 1399, 1400, 1401, 1402
 1403, 1404
*Elset, elset=Fixed
    1,    2,    3,    4,    5,    6,   91,   92,   93,   94,   95,   96,  181,  182,  183,  184
  185,  186,  271,  272,  273,  274,  275,  276,  361,  362,  363,  364,  365,  366,  451,  452
  453,  454,  455,  456, 1801, 1802, 1803, 1804, 1805, 1806, 1807, 1808, 1809, 1810, 1811, 1812
 1813, 1814, 1815, 1816, 1817, 1818, 1819, 1820, 1821, 1822, 1823, 1824, 1825, 1826, 1827, 1828
 1829, 1830, 1831, 1832, 1833, 1834, 1835, 1836
*Nset, nset=_PickedSet67, internal, generate
    1,  3234,     1
*Elset, elset=_PickedSet67, internal, generate
    1,  2340,     1
*Nset, nset=All, generate
    1,  3234,     1
*Elset, elset=All, generate
    1,  2340,     1
*Nset, nset=BC4
 22,
** Section: Magnesium
*Solid Section, elset=_PickedSet67, controls=EC-1, material=Magnesium
,
*End Part
**  
**
** ASSEMBLY
**
*Assembly, name=Assembly
**  
*Instance, name=Geom-1, part=Geom
*End Instance
**  
*Nset, nset=Set-1, instance=Geom-1, generate
    1,  3234,     1
*Elset, elset=Set-1, instance=Geom-1, generate
    1,  2340,     1
*End Assembly
** 
** ELEMENT CONTROLS
** 
*Section Controls, name=EC-1, hourglass=ENHANCED
1., 1., 1.
** 
** MATERIALS
** 
*Material, name=Magnesium
*Elastic
44000., 0.3
*Plastic
138.,   0.
290., 0.16
** 
** BOUNDARY CONDITIONS
** 
** Name: BC-1 Type: Displacement/Rotation
*Boundary
Geom-1.BCB, 2, 2
** Name: BC-2 Type: Displacement/Rotation
*Boundary
Geom-1.BC3, 1, 1
Geom-1.BC3, 3, 3
** Name: BC-5 Type: Displacement/Rotation
*Boundary
Geom-1.BC4, 3, 3
** ----------------------------------------------------------------
** 
** STEP: Step-1
** 
*Step, name=Step-1, nlgeom=YES
*Static
0.1, 1., 1e-05, 1.
** 
** BOUNDARY CONDITIONS
** 
** Name: BC-3 Type: Displacement/Rotation
*Boundary
Geom-1.BCT, 2, 2, 0.3937
** 
** OUTPUT REQUESTS
** 
*Restart, write, frequency=0
** 
** FIELD OUTPUT: F-Output-1
** 
*Output, field
*Node Output
CF, RF, U
*Element Output, directions=YES
LE, PE, PEEQ, PEMAG, S
*Contact Output
CDISP, CFORCE, CSTRESS
** 
** HISTORY OUTPUT: H-Output-1
** 
*Output, history, variable=PRESELECT
*End Step
** ----------------------------------------------------------------
** 
** STEP: Step-2
** 
*Step, name=Step-2, nlgeom=YES
*Static
0.1, 1., 1e-05, 1.
** 
** BOUNDARY CONDITIONS
** 
** Name: BC-1 Type: Displacement/Rotation
*Boundary, op=NEW
Geom-1.BCB, 2, 2
** Name: BC-2 Type: Displacement/Rotation
*Boundary, op=NEW
Geom-1.BC3, 1, 1
Geom-1.BC3, 3, 3
** Name: BC-3 Type: Displacement/Rotation
*Boundary, op=NEW
** Name: BC-5 Type: Displacement/Rotation
*Boundary, op=NEW
Geom-1.BC4, 3, 3
** 
** OUTPUT REQUESTS
** 
*Restart, write, number interval=1, time marks=NO
** 
** FIELD OUTPUT: F-Output-1
** 
*Output, field
*Node Output
CF, RF, U
*Element Output, directions=YES
LE, PE, PEEQ, PEMAG, S
*Contact Output
CDISP, CFORCE, CSTRESS
** 
** HISTORY OUTPUT: H-Output-1
** 
*Output, history, variable=PRESELECT
*End Step
** ----------------------------------------------------------------
** 
** STEP: Step-3
** 
*Step, name=Step-3, nlgeom=YES
*Static
0.05, 1., 1e-05, 0.05
*Adaptive Mesh, elset=Geom-1.All, frequency=1, mesh sweeps=10, op=NEW
** 
** ADAPTIVE MESH CONSTRAINTS
** 
** Name: Ada-Cons-1 Type: Velocity/Angular velocity
*Adaptive Mesh Constraint, user, type=VELOCITY
Geom-1.Const
** 
** OUTPUT REQUESTS
** 
*Restart, write, frequency=0
** 
*field,user
Set-1
** FIELD OUTPUT: F-Output-1
**
*Output, field
*Node Output
CF, RF, U
*Element Output, directions=YES
LE, PE, PEEQ, PEMAG, S
*Contact Output
CDISP, CFORCE, CSTRESS
** 
** HISTORY OUTPUT: H-Output-1
** 
*Output, history, variable=PRESELECT
*End Step
** ----------------------------------------------------------------
** 
** STEP: Step-4
** 
*Step, name=Step-4, nlgeom=YES
*Static
0.05, 0.05, 5e-07, 0.05
*Adaptive Mesh, op=NEW
** 
** ADAPTIVE MESH CONSTRAINTS
** 
** Name: Ada-Cons-1 Type: Velocity/Angular velocity
*Adaptive Mesh Constraint, op=NEW
** 
** OUTPUT REQUESTS
** 
*Restart, write, frequency=0
** 
** FIELD OUTPUT: F-Output-1
** 
*Output, field
*Node Output
CF, RF, U
*Element Output, directions=YES
LE, PE, PEEQ, PEMAG, S
*Contact Output
CDISP, CFORCE, CSTRESS
** 
** HISTORY OUTPUT: H-Output-1
** 
*Output, history, variable=PRESELECT
*End Step
** ----------------------------------------------------------------
** 
** STEP: Step-5
** 
*Step, name=Step-5, nlgeom=YES
*Static
0.02, 1., 1e-05, 0.02
** 
** BOUNDARY CONDITIONS
** 
** Name: BC-4 Type: Displacement/Rotation
*Boundary
Geom-1.BCT, 2, 2
** 
** OUTPUT REQUESTS
** 
*Restart, write, frequency=0
** 
** FIELD OUTPUT: F-Output-1
** 
*Output, field
*Node Output
CF, RF, U
*Element Output, directions=YES
LE, PE, PEEQ, PEMAG, S
*Contact Output
CDISP, CFORCE, CSTRESS
** 
** HISTORY OUTPUT: H-Output-1
** 
*Output, history, variable=PRESELECT
*End Step
